12
 
C        0.697596    0.000000    1.208272
C       -0.697596    0.000000    1.208272
C       -1.395192    0.000000    0.000000
C       -0.697596    0.000000   -1.208272
C        0.697596    0.000000   -1.208272
C        1.395192    0.000000    0.000000
H        1.238546    0.000000    2.145224
H       -1.238546    0.000000    2.145224
H       -2.477091    0.000000    0.000000
H       -1.238546    0.000000   -2.145224
H        1.238546    0.000000   -2.145224
H        2.477091    0.000000    0.000000
